---- qbsp / ericw-tools v0.18.1 ----
Input file: Deem_Tut_1.map
Output file: Deem_Tut_1.bsp

---- LoadMapFile ----
*** WARNING 06: No info_player_deathmatch entities in level
           48 faces
            8 brushes
            9 entities
            4 unique texnames
           18 texinfo

Opened WAD: G:/WORKSPACE/School/Game Des 2/Quake builder/quake-leveldesign-starterkit-master/quake-leveldesign-starterkit-master/wads/START.WAD
Processing hull 0...
---- Brush_LoadEntity ----
            8 brushes
           19 planes
---- CSGFaces ----
           48 brushfaces
           52 csgfaces
           52 mergedfaces
---- SolidBSP ----
           86 split nodes
           29 solid leafs
           58 empty leafs
            0 water leafs
            0 detail leafs
            0 detail illusionary leafs
            0 detail fence leafs
            0 illusionary visblocker leafs
          210 leaffaces
          208 nodefaces
---- Portalize ----
           58 vis leafs
           58 vis clusters
          118 vis portals
---- FillOutside ----
           51 outleafs
---- MergeAll ----
           22 mergefaces
---- SolidBSP ----
           14 split nodes
           10 solid leafs
            5 empty leafs
            0 water leafs
            0 detail leafs
            0 detail illusionary leafs
            0 detail fence leafs
            0 illusionary visblocker leafs
           70 leaffaces
           64 nodefaces
---- Portalize ----
            5 vis leafs
            5 vis clusters
            6 vis portals
---- Tjunc ----
           56 world edges
          206 edge points
           36 edges added by tjunctions
            0 faces added by tjunctions
---- MakeFaceEdges ----
---- GrowRegions ----
Processing hull 1...
Processing hull 2...
*** WARNING 19: No entities in empty space -- no filling performed (hull 2)
---- WriteBSPFile ----
Wrote Deem_Tut_1.bsp
           44 planes              880
           80 vertexes            960
           14 nodes               336
            7 texinfo             280
           64 faces              1280
          115 clipnodes           920
            6 leafs               168
           70 marksurfaces        140
          292 surfedges          1168
          147 edges               588
            4 textures          23732
              lightdata             0
              visdata               0
              entdata             681

0.062 seconds elapsed
Peak memory usage: 662356 (0.6M)
