---- qbsp / ericw-tools v0.18.1 ----
Input file: Deem_MidTermmmmmm.map
Output file: Deem_MidTermmmmmm.bsp

---- LoadMapFile ----
          558 faces
           94 brushes
           19 entities
            1 unique texnames
           42 texinfo

*** WARNING 01: No valid WAD filenames in worldmodel
Processing hull 0...
---- Brush_LoadEntity ----
           94 brushes
           96 planes
---- CSGFaces ----
          558 brushfaces
          492 csgfaces
          425 mergedfaces
---- SolidBSP ----
          787 split nodes
          286 solid leafs
          502 empty leafs
            0 water leafs
            0 detail leafs
            0 detail illusionary leafs
            0 detail fence leafs
            0 illusionary visblocker leafs
         1692 leaffaces
         1647 nodefaces
---- Portalize ----
          502 vis leafs
          502 vis clusters
         1381 vis portals
---- FillOutside ----
          321 outleafs
---- MergeAll ----
          305 mergefaces
---- SolidBSP ----
          229 split nodes
           99 solid leafs
          131 empty leafs
            0 water leafs
            0 detail leafs
            0 detail illusionary leafs
            0 detail fence leafs
            0 illusionary visblocker leafs
          818 leaffaces
          671 nodefaces
---- Portalize ----
          131 vis leafs
          131 vis clusters
          459 vis portals
---- Tjunc ----
          539 world edges
         2219 edge points
          419 edges added by tjunctions
            0 faces added by tjunctions
---- MakeFaceEdges ----
---- GrowRegions ----
Processing hull 1...
*** WARNING 19: No entities in empty space -- no filling performed (hull 1)
Processing hull 2...
*** WARNING 19: No entities in empty space -- no filling performed (hull 2)
*** WARNING 16: Texture church1_2 not found
---- WriteBSPFile ----
Wrote Deem_MidTermmmmmm.bsp
          250 planes             5000
          860 vertexes          10320
          229 nodes              5496
           26 texinfo            1040
          671 faces             13420
         2006 clipnodes         16048
          132 leafs              3696
          818 marksurfaces       1636
         3094 surfedges         12376
         1551 edges              6204
            1 textures              8
              lightdata             0
              visdata               0
              entdata            1192

0.159 seconds elapsed
Peak memory usage: 7018080 (6.7M)
